.TRAN 2 0.005 TRAP 10 UIC
Vcc 4 0 DC 10
Vin 1 0 SIN 1 0.05 1 0 0 0 100
Rb 1 3 1000
Rc 2 4 1000
Q1 2 3 0 NPN