.TRAN 4 0.005 TRAP 10 UIC
V1 1 0 SIN 0 4 1 0 0 0 100
D1 1 2
R1 2 0 1000