.TRAN 5 0.005 TRAP 4 UIC
V1 1 0 DC 10
R1 1 2 1000
C1 2 0 0.001 IC=15