.TRAN 3 0.005 TRAP 3 UIC
V1 1 0 SIN 0 10 0.5 0 0 0 1000
V2 2 0 SIN 0 5 4 0 0 0 1000
R1 1 3 1000
R2 2 3 2000
R3 3 4 3000
R4 4 0 1000
O1 4 0 0 3